/*--------------------------------*- C++ -*----------------------------------*\
| =========                 |                                                 |
| \\      /  F ield         | OpenFOAM Extend Project: Open source CFD        |
|  \\    /   O peration     | Version:  1.6-ext                               |
|   \\  /    A nd           | Web:      www.extend-project.de                 |
|    \\/     M anipulation  |                                                 |
\*---------------------------------------------------------------------------*/
FoamFile
{
    version     2.0;
    format      ascii;
    class       Cloud<gpuParticle>;
    location    "0";
    object      positions;
}
// * * * * * * * * * * * * * * * * * * * * * * * * * * * * * * * * * * * * * //

10000
(
(-0.09282 1.78857 -0.136547) 2777
(-0.0328412 2.00054 -0.705584) 91547
(0.891934 1.59503 0.223249) 191157
(-0.587125 1.58571 1.63674) 155779
(-0.449533 -1.96918 0.394303) 217492
(-0.268921 2.05703 -1.9211) 21783
(0.459834 1.53537 0.406801) 168851
(-0.376111 1.26741 1.80419) 87938
(-0.163587 0.743778 -0.938049) 69691
(0.533772 1.09346 0.874991) 169688
(0.365502 1.27416 2.25207) 57675
(0.232682 -0.69421 1.11515) 184866
(0.59053 1.40702 -0.201823) 85154
(0.675316 1.59988 0.43681) 168535
(-0.695127 2.12306 -0.661324) 148710
(-0.496836 1.37794 -0.270353) 69619
(0.337487 -0.369731 2.00874) 105263
(-0.670489 1.22367 -2.2585) 28962
(-0.635815 -0.834763 2.2423) 225446
(-0.434872 0.713589 -1.24027) 84951
(0.778826 -1.45526 -0.585179) 82504
(-0.468428 1.70932 0.0441149) 221966
(0.4175 -1.80917 0.0411851) 228066
(0.640537 2.33424 -0.482828) 56795
(-0.212976 0.215982 -2.37933) 95109
(-0.343467 -2.72912 -0.694799) 224073
(-0.126005 -0.831273 2.7514) 3449
(0.406492 -1.04789 -0.436905) 127833
(0.631643 -1.4295 1.09234) 130482
(-0.525832 0.521926 -2.03967) 116465
(-0.274232 1.02558 1.52914) 113912
(0.295841 0.417029 1.85624) 145923
(-0.397872 2.50397 -0.0529001) 141407
(0.770016 -2.37157 -0.689245) 211347
(0.21108 2.25357 -0.529902) 91635
(0.0613715 -2.03207 -0.581655) 27959
(0.553355 2.53341 -0.193021) 210968
(-0.695431 -2.32455 -0.498762) 78292
(0.744459 2.48145 -0.437795) 123134
(0.75116 -0.203109 -2.31149) 27257
(0.142062 -0.62166 -1.73499) 101594
(-0.250164 1.94197 1.80048) 90337
(-0.100011 0.746992 2.68874) 138135
(-0.430526 0.395189 -2.72649) 195742
(0.341913 -2.00092 -2.04179) 43767
(-0.639634 2.14457 -0.594941) 146980
(0.444732 -0.815422 -0.845198) 86788
(0.188159 -0.347284 -1.73604) 16485
(0.375773 1.08803 -1.33697) 112177
(-0.750105 1.31261 2.21098) 194673
(-0.18013 1.91292 0.949293) 57888
(-0.75651 -0.00719448 2.20174) 95512
(-0.196775 -1.33997 -2.23329) 115630
(0.564698 1.39511 -1.24276) 34411
(-0.420433 -0.398591 -1.96675) 31013
(-0.0836131 0.0556108 1.41036) 84012
(0.234569 -2.34052 0.520637) 102140
(0.532337 1.77788 0.561302) 77443
(0.405 -1.32245 0.935723) 59647
(-0.737545 0.877854 -2.2538) 5399
(0.140625 -2.09627 -0.494016) 19055
(0.0155465 -0.512116 2.0973) 175684
(0.556258 0.0246608 1.23582) 40069
(-0.131511 2.88163 -0.20895) 28203
(0.645364 0.527784 -1.63365) 27241
(-0.543958 1.74997 0.532363) 121473
(0.475732 1.25179 -1.45757) 17381
(-0.203472 0.407167 -1.53447) 138295
(0.249134 1.24982 -0.471912) 219863
(-0.194716 -0.376979 -1.81651) 19712
(-0.330817 -2.51811 0.748216) 165350
(0.120818 0.230138 1.52308) 51565
(-0.12023 1.18236 0.103111) 200369
(-0.0409278 -1.26012 -2.35844) 16739
(-0.939579 -1.8926 1.22676) 79379
(0.391101 1.4165 0.351269) 189159
(-0.689399 1.31282 1.1591) 165912
(0.721943 -1.22332 -0.973694) 30670
(-0.815715 -1.77869 -0.485605) 142926
(-0.46298 1.10701 1.89874) 42018
(0.400122 -2.13183 0.99019) 210180
(0.314009 -1.3371 1.35408) 219090
(-0.313039 -0.977265 2.55079) 185748
(0.245565 2.26917 -1.78026) 93334
(0.709418 0.160346 2.37432) 225739
(-0.523818 1.26811 0.283778) 162353
(0.186873 -1.03576 0.935143) 208960
(-0.806478 2.11297 0.401519) 19431
(-0.755514 -1.9606 1.74998) 72306
(-0.658153 -2.13082 1.19848) 170483
(-0.365471 1.18986 -0.422987) 22780
(0.212762 -2.19667 0.571918) 123242
(0.0466743 1.96723 1.79243) 31136
(0.183982 2.81003 -0.272846) 77527
(0.395277 1.52671 -1.66652) 87017
(-0.0940639 -1.5742 2.11067) 61173
(-0.243784 -1.16858 -0.72293) 120952
(-0.978991 0.630381 -1.79474) 202315
(0.256713 2.26515 1.43732) 125890
(-0.221872 1.39637 0.125571) 84029
(-0.946466 0.388941 -2.12766) 215244
(-0.921272 1.06058 -1.86242) 35879
(0.847967 -0.0358846 -1.54248) 14648
(0.811542 -1.16825 -2.01286) 193342
(-0.328702 -1.24118 -0.977398) 182016
(-0.416074 -0.534163 1.19089) 212443
(0.984407 -1.80088 -1.12543) 222081
(0.473199 -0.723254 -0.891668) 37384
(0.0960211 1.53135 0.0519185) 205601
(0.0528253 1.49595 2.3395) 57252
(-0.498451 1.42113 -0.966868) 14406
(0.790023 -1.60835 -0.646848) 210056
(0.701678 0.0324707 -2.33875) 56389
(0.266367 -1.36423 1.17007) 210889
(0.666385 -1.85378 -0.436026) 100419
(-0.0188514 -0.733753 2.39781) 194952
(-0.882985 -1.90668 1.41504) 140978
(0.878069 -0.884315 2.2478) 80880
(0.0141789 1.16841 -0.894183) 92059
(-0.879365 -1.46382 1.88204) 111291
(-0.408873 1.40382 1.09632) 216971
(-0.206462 1.30428 -1.12221) 179203
(-0.297282 2.51746 -0.71807) 165213
(-0.556895 0.945144 -1.21475) 30939
(0.573573 -0.0532878 -2.1101) 37927
(-0.621667 0.576191 1.67176) 85658
(-0.515439 -0.202004 -1.72149) 93111
(-0.0460085 -1.57652 -0.643125) 184213
(0.225342 -2.66446 0.026995) 162682
(-0.630428 0.802905 2.0497) 114603
(-0.343839 0.55506 2.40829) 145243
(0.462661 1.66699 -0.940436) 68116
(-0.800379 -1.65489 -0.74472) 91492
(0.882711 0.48218 -1.93884) 38077
(-0.512794 0.701373 2.43227) 145846
(0.944443 1.69955 -0.68472) 152833
(-0.339028 -1.24774 0.538751) 10860
(0.754539 -1.28902 0.467311) 181273
(0.123912 -1.03251 1.21949) 150607
(-0.279893 1.73505 2.35093) 129044
(-0.112009 -0.645954 1.00373) 65250
(0.071885 2.12994 -1.79553) 159619
(-0.430392 -1.44935 -1.92381) 76348
(0.326489 -2.56315 0.292107) 226299
(0.140614 1.05855 1.48139) 187790
(0.477932 2.49938 -1.07811) 186204
(-0.119563 -2.46142 0.565466) 204238
(-0.754054 -0.817895 -1.53483) 182036
(0.18713 -2.79209 -0.892108) 44401
(0.209154 2.39136 -0.385237) 120639
(-0.615744 1.52026 -2.29816) 8151
(-0.177827 0.503514 2.14848) 114628
(-0.413932 -1.78969 -1.58586) 178787
(-0.579293 -2.67908 0.383894) 95174
(-0.936293 0.064767 -1.75248) 180045
(0.466543 2.07154 -1.00933) 35212
(-0.358992 1.14865 -2.37767) 178092
(-0.465913 1.78566 -1.73149) 125944
(0.340244 -0.409765 1.67916) 226360
(0.579343 -1.39094 2.33127) 89051
(0.230459 1.37269 -2.39025) 166990
(-0.345515 -0.957001 2.56862) 168650
(-0.225283 -1.5966 0.271086) 178327
(-0.251861 0.667226 2.61874) 92123
(0.346153 -1.11254 -1.72843) 113254
(0.134713 -1.33837 -1.1297) 216840
(-0.102791 2.18133 -1.02035) 73482
(0.634354 0.482993 -1.89357) 103489
(-0.374371 1.01689 1.46306) 95026
(0.566962 -2.67077 -0.1235) 157216
(-0.591952 1.11284 -1.79162) 177813
(-0.631856 0.058088 2.01024) 67200
(0.87814 -0.172932 -1.86885) 35395
(-0.235314 -0.706012 0.957816) 97114
(-0.571725 1.31367 -0.121518) 5845
(-0.637063 1.76796 -1.48628) 107908
(-0.38811 -0.21726 -1.76194) 130870
(0.086745 -0.223476 -2.19825) 147820
(-0.304513 1.51357 -1.25586) 66590
(-0.525895 -1.3092 1.65844) 88473
(-0.0363184 1.84511 -0.493204) 136453
(0.0374659 -0.805661 1.22509) 219650
(0.823845 0.0126379 1.45938) 191189
(-0.24572 -1.98765 -1.60027) 94942
(0.44859 -1.31794 -1.44501) 4126
(0.335808 1.22949 2.40373) 144644
(0.161356 1.03358 -0.592854) 223890
(0.0872691 1.88619 0.493822) 105305
(-0.137911 2.69566 -0.942334) 223069
(-0.216911 2.21869 -0.322405) 144576
(-0.490789 -2.00952 1.41171) 75999
(-0.473675 -0.142062 2.60403) 20793
(0.158795 2.51973 -0.346945) 197348
(0.269868 -1.73904 0.922057) 150157
(-0.63474 -2.24628 -1.18652) 19817
(-0.77188 -0.581767 -2.32366) 117676
(0.40307 -1.25886 1.9595) 60075
(0.676448 -0.225497 -2.10263) 193513
(0.141366 -2.7261 -0.0289445) 40547
(0.521929 1.33285 0.477379) 119396
(-0.187834 -1.24035 1.70438) 169069
(0.181123 0.238688 -2.17698) 179397
(-0.245534 1.20462 2.00908) 180598
(0.370438 -1.32419 1.14117) 101670
(-0.69698 2.17582 -0.398115) 171021
(-0.353373 -1.06155 -1.53123) 20958
(-0.114345 -1.06214 -2.65932) 50399
(-0.868902 2.2782 0.476172) 217015
(-0.582276 -0.958302 1.787) 194899
(-0.230274 -1.75167 -0.439319) 199980
(0.17613 -1.38952 1.61246) 109071
(-0.260144 -2.40707 1.30806) 72701
(0.753118 2.54562 0.0280038) 103170
(-0.156344 -1.2078 -0.333249) 142197
(-0.82432 -0.530358 -2.29143) 117681
(-0.460085 1.24818 1.70708) 34392
(0.252218 -0.447665 1.98976) 59424
(0.00629741 -1.13172 1.81768) 83090
(0.632916 -1.86806 -0.2746) 225568
(0.289457 2.31731 1.48277) 125886
(-0.678761 0.119858 -1.86174) 173491
(-0.181709 -0.911027 -1.62117) 89734
(0.0162651 1.39153 -1.61399) 201292
(0.0626095 0.795148 -0.968348) 180523
(0.380362 -0.392437 -1.10599) 35726
(0.44298 -0.239996 1.93052) 60435
(0.192797 1.92382 1.31418) 134867
(0.560491 -1.20108 -1.86201) 88826
(-0.213356 -1.43245 -1.86974) 17050
(0.463961 -1.67408 2.3287) 68585
(-0.713244 -0.941645 -1.16442) 128554
(-0.0238746 -0.114825 -1.24344) 68720
(0.861845 -1.63797 0.943288) 64679
(-0.39246 1.36181 -1.01869) 223163
(0.36658 -0.124206 -1.0675) 182041
(-0.583667 -1.24475 -0.165461) 189338
(-0.246059 -2.6452 -0.947213) 124384
(0.657909 1.63448 -1.6492) 64590
(0.151182 0.197601 -2.70713) 52364
(0.152251 1.50266 -1.36597) 113162
(-0.534651 2.35307 -0.300192) 107136
(-0.640472 1.27193 -2.15961) 224758
(-0.173592 0.161962 -2.91739) 54275
(-0.349685 0.331574 1.80313) 128490
(0.165182 1.43779 2.02813) 42711
(0.684562 -1.31059 -0.073658) 161897
(-0.137743 -1.69861 -0.666129) 207834
(0.184241 1.0857 0.36474) 78541
(0.194903 -0.303445 1.30628) 181062
(-0.348059 -0.723074 1.5222) 158767
(0.521598 1.57176 1.72687) 135513
(-0.948349 1.20433 1.42835) 83802
(0.0293057 0.494303 -2.82872) 8167
(-0.554481 0.583537 -1.37757) 31191
(-0.604493 -0.437962 -1.52449) 131190
(-0.0820565 0.782614 2.40389) 99144
(-0.0807603 0.248465 -2.36178) 41946
(0.326021 1.38459 0.115867) 32702
(-0.0627305 -1.67004 0.670935) 129581
(-0.275201 -1.86613 -0.333901) 179710
(0.126999 0.0248619 2.24096) 145612
(-0.446379 0.332492 -2.03274) 132015
(-0.396192 1.66636 0.620102) 53023
(0.844913 1.02045 2.00002) 19844
(0.413911 -2.56645 -0.69649) 167769
(-0.0651956 -1.09784 -1.29204) 75709
(0.103301 -1.76131 -0.338253) 12945
(-0.390541 2.05015 0.411218) 39486
(0.125438 0.240358 -2.74605) 52362
(0.528947 0.000526595 2.55193) 225703
(-0.267254 -2.19005 0.114307) 21797
(-0.792294 -0.818534 2.3264) 52474
(0.826568 -1.3221 1.14063) 52055
(0.0828042 2.60352 -1.04639) 135856
(0.688665 1.74358 -0.253043) 77564
(-0.478582 2.6172 -1.07587) 154336
(-0.388763 2.03951 -1.89699) 225614
(-0.447289 -0.531641 2.7278) 70089
(0.326015 -2.61327 0.546108) 217767
(-0.0401291 -2.44071 1.56367) 170430
(0.259537 -2.06067 1.24815) 169499
(0.911409 1.18602 -1.41505) 734
(-0.934897 1.55171 -1.6769) 12564
(-0.372783 -0.0964035 1.70313) 169837
(-0.540018 -1.58254 2.29715) 133660
(-0.291482 0.854428 -1.26916) 112614
(0.227373 -2.45587 -1.66251) 160455
(0.0364035 -0.895449 2.28783) 204881
(-0.870715 -1.66202 1.60458) 104276
(-0.179543 -1.28497 -1.80076) 107644
(0.601242 -1.9913 -0.570068) 192324
(0.534704 1.15332 -1.38164) 34722
(0.91196 -2.36524 -0.0905446) 9749
(0.51094 2.73083 -0.158665) 197365
(-0.359027 -1.16205 -1.28622) 163564
(-0.266593 0.731623 -0.778325) 9162
(0.600754 1.18468 1.95612) 149499
(0.891194 -2.07904 -0.0052967) 153892
(0.056464 0.269271 -2.18449) 22531
(-0.454446 0.691688 2.21521) 203341
(-0.25752 -0.607743 1.53965) 68652
(0.951727 0.380657 -2.15518) 190166
(0.449962 -2.61426 0.289805) 59261
(0.774751 1.48389 1.10468) 89033
(-0.0524417 -2.537 -0.100497) 59244
(-0.595548 -1.44952 -0.382557) 68344
(0.5334 1.11872 2.23782) 157304
(0.483056 -1.3361 -2.12337) 157443
(-0.491408 -2.26804 -1.45976) 86233
(0.290423 0.140824 2.11942) 203007
(0.219455 -1.83852 2.11715) 62655
(-0.500842 -0.128628 2.50491) 174076
(0.757424 1.6047 1.67788) 108042
(-0.526829 1.15126 -1.30214) 85203
(0.65713 -0.230273 2.73424) 112861
(-0.222638 2.07478 1.36287) 100879
(-0.72483 1.14371 -0.754433) 1786
(-0.587191 -1.25343 -1.03791) 100294
(-0.0639731 -2.41162 0.55739) 167152
(-0.0836238 -1.34694 2.1526) 82332
(0.57644 -0.213192 -2.06159) 139865
(-0.238351 -1.43999 0.711331) 64255
(0.163857 -0.239845 -2.93726) 152591
(-0.322511 -0.458251 1.38191) 80964
(-0.238839 -1.79151 -1.82915) 155653
(-0.159633 -0.969993 -0.484753) 46582
(0.523798 -1.66098 -0.0794931) 151313
(-0.0376179 0.261732 1.48792) 176321
(-0.851708 0.805404 1.62362) 7244
(-0.323949 1.83988 1.50526) 142358
(0.689911 -1.21719 1.22999) 156140
(0.541641 -0.507595 1.4047) 72786
(-0.28917 -1.93253 -1.56938) 195951
(-0.160864 -0.609632 -0.812505) 1122
(-0.671438 -1.8806 0.192417) 154773
(0.435159 -1.98625 1.03073) 216228
(0.146499 2.25641 1.15319) 168080
(0.147744 -2.75057 0.272827) 132295
(0.628021 1.83711 1.71536) 41967
(-0.333264 1.63992 -0.686804) 89376
(0.378289 -1.92155 0.590805) 71842
(0.507284 -2.73966 0.670506) 6713
(0.160857 -1.66048 0.0169063) 179842
(-0.192949 0.701296 -2.64073) 226146
(-0.139853 1.58319 0.335843) 84536
(0.0703643 -1.60549 0.901256) 17549
(-0.324548 -1.22814 -0.676931) 102111
(0.0451203 -0.77962 -1.34421) 111540
(0.0150926 1.79951 -0.775619) 179161
(-0.351562 -0.486082 -2.03452) 166466
(-0.507331 -1.35375 1.04089) 68048
(0.78535 1.83634 1.29978) 190812
(0.821579 -2.32906 0.447237) 122868
(-0.756577 -1.96534 0.9855) 220267
(0.402329 -1.47532 -2.01557) 100564
(0.0266091 -2.82186 0.588437) 203783
(-0.507516 1.65684 -0.811178) 73438
(0.118914 -1.80237 -1.46521) 20911
(0.25762 -2.02797 1.13623) 89985
(0.595701 -2.36739 1.30505) 70306
(-0.823411 -0.563739 -1.47853) 213743
(-0.0869469 0.791462 1.5624) 4516
(0.565538 -1.11841 1.59361) 42137
(-0.923159 -1.1819 -1.2792) 76018
(-0.414825 2.02868 -2.01052) 48811
(-0.634181 1.97068 -0.947617) 196899
(-0.163694 -1.40772 0.656472) 77889
(-0.737977 -2.06941 0.10126) 80115
(-0.352593 -0.618514 2.13562) 41460
(0.187655 1.28283 -1.45426) 223548
(-0.430844 -1.741 -0.385556) 142048
(-0.75427 -0.457316 1.93215) 218904
(0.367697 0.489618 -1.71721) 105789
(0.908822 0.357915 -1.96791) 130513
(-0.65485 1.94646 0.963362) 71965
(-0.054746 2.03698 -0.350188) 134192
(0.0650139 0.939485 -1.10539) 85801
(0.0175484 -2.43057 -0.595432) 51500
(-0.744068 -0.755546 1.82139) 121317
(0.698119 -2.66646 -0.130561) 196465
(-0.917306 1.73433 -0.190534) 140894
(0.587557 2.59784 0.444879) 37909
(0.930058 0.0766132 2.0365) 117786
(0.482632 0.231172 -2.01805) 25564
(0.622135 0.400431 1.91497) 190932
(0.144039 0.497009 2.90583) 52683
(-0.778632 0.377829 1.95907) 72911
(0.616097 2.45191 -0.63661) 64036
(0.788571 -0.658299 -2.51695) 74066
(-0.475589 1.27653 -1.24954) 174331
(0.431786 -1.27138 -1.77802) 115619
(0.65139 1.25336 -0.559018) 81357
(-0.220933 -0.130587 1.68694) 169856
(-0.815071 1.66769 -1.57815) 116917
(-0.264468 -0.665529 2.17889) 41461
(0.725972 0.33368 1.96051) 77151
(0.941463 0.479832 1.92945) 150036
(-0.356155 -1.86027 0.194254) 131433
(-0.525987 -1.51265 -0.605022) 2306
(0.344691 2.3336 -1.46856) 37541
(-0.202439 -2.11311 -0.937092) 116507
(0.478251 1.2791 -1.63642) 108928
(-0.668947 2.08625 0.325373) 212090
(-0.270694 -1.7326 2.26352) 975
(0.503275 1.88743 -2.03918) 221013
(0.13313 -2.51346 0.278757) 180407
(-0.279775 0.724826 -2.8422) 93351
(-0.347046 -0.862841 2.53677) 83244
(0.716795 -0.902003 2.23291) 36315
(-0.431365 2.48082 -1.46074) 222177
(-0.759543 0.687068 1.69343) 85779
(-0.705702 0.318641 -1.70231) 161653
(0.444284 -1.23613 1.90618) 4507
(0.630132 -1.13722 -2.51122) 162783
(0.481208 -2.19504 0.0979521) 215879
(-0.18841 -0.482116 -1.3116) 140268
(0.0418046 2.1204 -0.328689) 31870
(-0.168606 1.85985 1.69019) 46180
(-0.25425 0.990147 2.44908) 87960
(-0.511901 -0.632023 -1.3015) 62703
(0.906632 0.71941 -1.55311) 200748
(-0.150669 1.20321 1.6515) 100835
(0.166223 1.9435 -2.22674) 147142
(0.493996 0.0638618 -2.25754) 179498
(0.851111 -1.6724 -1.17537) 34853
(0.635804 -0.559712 -2.2135) 221825
(-0.152465 -0.165575 -2.91849) 88301
(-0.0138478 -2.42385 0.514694) 167157
(0.623495 -1.84705 2.0413) 110023
(-0.410283 1.3293 0.6249) 141966
(0.83459 0.817062 -1.63516) 85335
(-0.377857 0.450415 2.33141) 154233
(-0.732487 -0.391902 2.54267) 3264
(0.250294 2.78797 0.488035) 28885
(0.412904 2.37442 -1.66448) 2550
(0.30946 2.03121 -1.67751) 214361
(0.240518 1.63402 -1.54997) 100060
(-0.424205 -2.15174 -0.430798) 29453
(-0.294413 1.81369 1.41522) 141544
(0.205953 0.602709 -2.10744) 25015
(-0.68341 -0.0692031 1.81012) 206767
(-0.422904 1.34599 -0.38628) 227790
(0.503791 2.43159 0.12695) 196767
(0.936588 -1.09634 1.7881) 199393
(-0.352597 2.22408 -0.687937) 177551
(0.617432 -1.59716 -1.15888) 188245
(0.707814 -1.41634 -0.335731) 172827
(-0.179619 0.632426 2.30611) 205477
(0.444736 -2.80885 -0.344428) 36542
(-0.184516 1.79244 0.859857) 205973
(-0.118942 -1.50719 -1.57322) 178711
(-0.783496 1.76579 0.0213612) 205540
(-0.438012 0.574655 1.03702) 210498
(0.470794 -2.70763 0.120147) 183841
(-0.413566 -0.49441 2.2683) 203845
(-0.444974 1.88994 1.96248) 95560
(0.236072 -1.73115 0.224705) 10798
(0.576331 2.24761 1.39811) 72378
(0.509293 0.976747 2.44396) 145747
(-0.134127 -2.82334 -0.689999) 223983
(0.71918 1.17891 -1.71262) 179347
(-0.51333 -1.07364 -1.92494) 117460
(0.556735 -0.355013 1.81384) 31493
(-0.13552 -1.76596 -0.397252) 39172
(-0.41759 2.14318 1.61581) 165155
(0.00552084 1.43196 -1.82878) 11974
(0.830938 -2.0685 0.13167) 35580
(0.178298 -1.46954 2.41331) 127395
(-0.0617615 1.96325 -2.15745) 180381
(-0.165079 -2.2293 -0.155277) 76538
(0.0136146 2.41458 1.59521) 115808
(-0.484401 1.15058 0.516207) 39987
(-0.714298 1.66364 0.634934) 91121
(-0.586015 1.61892 -1.61499) 79830
(0.447425 1.36551 -1.749) 15245
(-0.299859 1.33888 -0.431395) 215021
(-0.478724 2.61048 -0.00173949) 16126
(-0.586233 1.28724 0.992095) 172079
(0.686041 1.27927 -0.860372) 22667
(0.326914 -0.73676 1.34071) 185386
(0.00502481 2.54076 1.58622) 115810
(0.0501158 -0.906151 -1.59279) 130208
(0.285787 2.11686 -0.209319) 166113
(0.56475 -1.25147 0.855261) 121046
(0.32866 2.36725 1.66326) 125894
(0.623264 1.2243 -0.117609) 1041
(0.68887 0.263887 -2.40343) 190083
(-0.534002 -1.91574 -1.03337) 191352
(-0.0855215 -2.33829 -0.615046) 200224
(0.0418515 0.314063 1.84094) 218644
(0.181846 -0.925803 -1.55872) 130382
(0.787657 1.659 0.606355) 187164
(0.414275 1.2601 -2.13025) 49318
(0.281937 2.78558 -0.600431) 161309
(-0.0710434 2.38046 -0.426123) 139519
(0.442496 1.84459 -2.18527) 32749
(0.325681 -2.16353 1.38559) 123518
(-0.85855 -1.09209 1.38634) 48774
(0.361121 1.12477 0.784756) 106520
(-0.870172 -1.70273 -1.42902) 105699
(0.157096 1.16973 0.589118) 134088
(0.640846 2.03848 0.00271634) 190939
(0.183799 0.0414934 1.06872) 37883
(-0.64253 -0.560725 -2.32002) 45174
(-0.604762 -1.72616 0.336828) 211740
(-0.613946 1.39639 -0.780277) 142409
(0.0730148 0.753239 0.837676) 81020
(0.0995938 2.04515 0.361911) 9609
(-0.262422 2.73931 -0.963461) 63091
(0.351045 -2.72818 -0.969791) 125252
(0.497499 -0.957164 1.29007) 210978
(-0.343262 2.23381 0.755601) 205533
(-0.712066 -1.94673 -0.664064) 66299
(0.599514 -1.7401 1.48988) 61819
(0.0596115 2.60838 0.389806) 53983
(-0.318525 1.08339 1.78177) 152093
(-0.00232289 2.29399 -0.621052) 38752
(0.145116 -0.0551305 1.39783) 26083
(0.77242 -0.398062 -2.52448) 153768
(0.399982 -1.00222 -2.7273) 46429
(0.511792 -0.76626 2.69898) 124495
(0.843879 0.900371 -2.15281) 139378
(-0.0390183 1.59161 0.877839) 38433
(0.567853 1.73939 1.36206) 31854
(0.524238 0.895804 1.59513) 190609
(-0.129895 -2.29625 -0.522111) 200223
(0.0677679 -1.81091 -1.07019) 97729
(-0.223107 -2.23271 1.41629) 126079
(0.593826 0.982676 1.64485) 48488
(0.545292 -2.10598 -1.3232) 65955
(-0.137532 -0.206561 -1.14627) 3426
(-0.348727 2.52813 -0.0303775) 140015
(0.666465 1.98535 -0.317522) 208124
(0.409217 -2.14898 -1.51435) 216591
(-0.258898 -0.807112 -1.73162) 106635
(-0.208988 1.28592 0.308805) 119347
(-0.0879671 1.19698 -0.835988) 199678
(-0.569788 -1.50411 0.0892669) 174726
(0.894012 1.19217 -1.6438) 61055
(-0.937743 1.59369 -1.1274) 146139
(-0.646822 0.190529 -1.26538) 133948
(0.793356 1.35202 -2.18375) 180067
(0.303579 0.580859 1.36072) 10140
(-0.605212 1.95524 0.679747) 1561
(0.642015 -1.59132 -2.10747) 93389
(-0.0581756 -1.10095 2.3261) 61
(-0.778575 2.40146 -0.451301) 194065
(0.11937 -2.63541 0.0933134) 118128
(-0.498355 0.117541 2.36894) 19599
(-0.308024 2.55968 -0.187264) 91166
(-0.441143 -1.86041 0.162099) 141088
(0.958193 1.6583 -1.21495) 6874
(0.14835 1.80608 1.22412) 47499
(-0.420987 -1.46844 0.989067) 50206
(-0.222837 -0.577024 1.70985) 129270
(0.0398993 1.34166 -0.63178) 67501
(-0.837056 0.525939 -2.19289) 27028
(-0.558735 2.563 -0.277878) 15321
(0.169887 2.12576 1.4183) 155515
(0.0749567 -0.78127 -2.80629) 192614
(-0.289055 0.107376 -2.11829) 197455
(0.790909 1.97209 -1.30955) 183334
(0.30932 2.61038 -1.12376) 80234
(-0.424426 -2.83775 -0.57512) 223461
(-0.661319 2.71158 0.220974) 211837
(-0.811241 1.848 -0.382069) 16496
(-0.221247 -2.06563 -2.03419) 129426
(-0.174207 2.77627 -0.204652) 135721
(-0.616911 -0.993336 -1.77301) 103456
(0.333021 -1.86754 -1.3988) 216987
(0.0233997 -1.85956 1.361) 100066
(0.79951 0.824801 2.29798) 970
(0.188835 0.425432 -1.78584) 209496
(0.152074 2.51748 -1.09887) 167556
(0.160296 -1.71055 -0.0081726) 179846
(-0.226919 1.67409 -0.921115) 112260
(0.0245815 0.780053 -0.905951) 10661
(0.426864 1.86884 1.90924) 142635
(-0.612684 0.768723 2.53067) 188393
(0.803195 0.011647 -1.8446) 23464
(-0.285298 -0.789941 2.70347) 223505
(0.626804 1.03696 2.52367) 75526
(-0.345829 0.763915 2.27355) 9885
(0.619192 -1.33799 1.0598) 198983
(-0.576461 1.268 -0.674122) 102709
(0.345653 0.507839 2.38091) 153696
(0.564706 -2.58405 -0.479603) 119593
(-0.472858 1.80683 -1.85443) 23865
(0.655685 2.28597 -1.28236) 193197
(-0.0809321 -2.38592 1.2181) 80520
(0.0683893 -1.84192 -0.171449) 33202
(0.525606 1.3151 2.51018) 104083
(0.565929 2.02278 -0.929253) 162621
(-0.899434 -1.7514 -0.213875) 45103
(0.711675 1.62829 -1.62384) 64592
(-0.172511 1.64932 -0.0591877) 72203
(0.118172 2.70496 0.152299) 113136
(-0.727021 -1.00887 1.72648) 156256
(-0.631981 1.74187 -0.947917) 66879
(-0.362552 -0.314188 1.25612) 95907
(-0.337226 0.587001 -2.04703) 128388
(-0.361974 2.30955 0.617351) 146331
(-0.158866 -1.07459 1.50202) 204992
(0.474754 2.58781 -1.2527) 9349
(0.447411 -1.45173 -1.05669) 104198
(0.00112483 -2.93061 -0.222251) 107337
(-0.439459 1.12934 0.9076) 139560
(-0.0863438 0.546215 -1.11742) 217374
(-0.305311 -0.277317 -2.81598) 90115
(-0.0362214 -1.47802 -1.54777) 152439
(0.46837 1.40597 -1.14016) 11395
(0.308596 -0.998029 -1.69104) 109441
(-0.794184 -1.6863 -0.0632379) 37285
(0.0646845 -1.43189 -1.7482) 22153
(-0.0633616 2.33236 -0.400349) 139521
(0.354906 2.27461 0.938218) 25149
(-0.841775 -1.69845 0.758147) 172464
(-0.334057 -1.15575 2.23785) 138116
(-0.839079 1.55585 -1.82695) 127002
(0.367731 0.53482 -1.79993) 118409
(0.509801 0.51797 1.633) 22788
(0.144644 0.708334 2.65392) 89273
(0.112586 -0.276403 -1.92886) 151637
(0.416745 2.37429 0.651764) 76630
(0.561218 -1.33483 2.19867) 149347
(-0.177842 1.13674 1.35544) 103396
(0.285319 -0.454653 1.4634) 41417
(0.215749 -2.2038 -1.72521) 192190
(0.39071 -1.12064 2.19187) 110373
(-0.171949 1.9116 0.236916) 170697
(0.136618 1.47255 -1.55505) 11055
(-0.820255 1.7045 -0.755979) 110180
(-0.274988 0.00822177 1.78614) 220620
(-0.621707 0.832212 -2.57021) 44726
(-0.170762 1.94167 -0.429687) 71953
(-0.74475 -1.4405 0.00862667) 205044
(0.34519 -1.21396 -2.00931) 28135
(-0.616303 1.9873 0.422425) 78924
(-0.723558 0.580665 1.25289) 66420
(0.0717642 -1.27836 -0.892883) 17417
(0.421959 -1.13482 2.35669) 37956
(-0.324421 0.428224 -1.75496) 213193
(0.593895 -1.89166 -0.999195) 29232
(-0.243034 -0.690623 2.51685) 203869
(-0.407693 -0.676124 1.98663) 212099
(-0.615609 -1.29724 -1.19134) 111545
(-0.426979 1.18268 2.2438) 11487
(-0.474301 1.16864 0.201584) 161685
(-0.876445 1.32049 -1.20194) 191841
(-0.747932 -1.08448 -2.31476) 195824
(-0.597408 -2.06218 -0.226332) 118831
(-0.0916282 -2.0559 -0.17032) 2938
(-0.946085 0.575685 -1.60868) 58910
(0.308468 2.24862 1.8956) 160950
(-0.136417 -0.910931 -2.50665) 3217
(0.742004 -0.328062 -1.38273) 159324
(-0.307198 2.10361 -0.896205) 19688
(0.340075 -0.303524 2.02676) 225643
(-0.662065 -2.10337 1.24003) 170489
(0.330328 1.01808 1.6337) 113708
(-0.0822655 1.38782 2.17636) 74447
(-0.744146 1.54433 -0.17101) 158959
(0.230737 -2.55815 -0.0654487) 119590
(-0.0245981 -0.285439 2.18426) 209018
(0.215671 0.286045 1.33978) 64044
(0.33056 -2.38164 0.212151) 46853
(-0.0409466 1.03653 0.21058) 22309
(0.60188 1.51343 -0.637685) 106603
(-0.865418 0.694327 1.48342) 45413
(0.708961 -2.52481 0.317326) 215870
(-0.12178 0.287121 2.73961) 204542
(0.432486 0.358545 2.28348) 59534
(-0.252722 0.635484 1.96908) 19872
(0.667154 -2.16158 -0.1986) 192510
(-0.731477 -1.96693 1.76995) 72304
(0.0488913 -1.10522 2.1095) 126749
(0.0869412 -1.68396 2.06712) 143621
(0.956469 0.424747 1.66719) 170959
(-0.345659 1.55388 -1.42362) 201286
(0.534342 0.258225 2.14319) 81733
(0.0226885 1.08075 2.39484) 205493
(0.16578 -0.510931 2.06273) 140112
(0.261522 -0.962503 1.44651) 61710
(0.322958 0.031609 2.2119) 39956
(0.448354 -1.07319 2.57081) 96929
(0.0658544 0.451132 -2.73641) 227204
(-0.93842 -0.822803 1.88384) 159216
(0.420757 0.853293 1.22976) 54821
(0.671713 0.95159 -1.86875) 186731
(0.514717 -2.06375 -0.00283822) 199890
(-0.859047 -1.20948 -1.76514) 195918
(0.977575 -1.63455 1.04054) 160610
(0.338206 -2.31458 -1.02499) 9587
(-0.0629487 -0.958053 2.19216) 169535
(0.757256 1.05727 1.01022) 121006
(-0.278108 -1.77831 -2.3025) 39246
(-0.558099 0.761942 1.3528) 78684
(0.326158 -0.527699 -2.30776) 214097
(0.219337 2.51655 1.30507) 107101
(-0.540876 -0.924073 2.00194) 41007
(0.449452 2.19511 -0.111795) 143780
(0.0501869 1.64 -1.62586) 33968
(0.140186 1.10122 -1.81696) 116708
(-0.714626 0.250854 2.0419) 212250
(0.0593971 1.18862 2.21273) 220475
(-0.956625 2.00983 0.997064) 73315
(0.432713 1.75896 -2.00639) 131553
(0.694719 -0.50388 -1.64112) 33071
(-0.749213 -0.695842 -1.54816) 50939
(0.904696 -0.798901 -2.009) 96052
(-0.410704 2.19744 1.36294) 209688
(-0.0802155 -0.97441 2.4999) 38847
(-0.15433 0.773937 -1.3293) 114576
(0.403455 -0.00189569 2.75731) 214246
(-0.710286 0.175209 2.27843) 138277
(-0.772224 -2.06821 -0.217011) 36130
(0.306914 -1.80271 1.2756) 184721
(-0.60587 1.68273 -0.901064) 223055
(-0.317123 -0.429397 -2.21408) 108170
(-0.451945 -2.22776 -0.00107274) 80418
(-0.131995 -2.82218 -0.62663) 22690
(0.731118 -0.152351 -1.65255) 136582
(-0.631984 1.61605 2.16336) 220126
(0.670564 1.10759 0.792325) 225482
(0.34263 0.789943 -1.94361) 166982
(0.602233 2.10002 -0.0691783) 173709
(0.0335633 1.33394 -1.19599) 161513
(-0.108619 1.35169 0.376276) 120576
(-0.191479 -2.18517 1.21179) 88384
(-0.613924 -0.465975 1.87621) 42151
(0.0616681 0.412568 -1.16746) 196018
(0.524622 -0.0516701 1.44367) 26090
(-0.291083 -1.57483 -1.33506) 126880
(-0.316298 -0.490995 1.49485) 140079
(-0.350869 1.65165 -0.8336) 1026
(0.678407 -1.68281 0.742436) 138405
(-0.0909429 1.60041 1.75586) 182626
(-0.436416 -0.929451 -1.18996) 178677
(-0.932515 2.22324 0.379925) 24221
(-0.6647 0.151287 -2.20736) 147230
(0.638227 -1.98139 -0.83179) 170353
(0.740887 -1.30824 1.58031) 113606
(-0.372892 0.503283 -0.999771) 142972
(0.351726 -1.45617 -2.23926) 101153
(0.469861 0.82715 1.38015) 26370
(-0.396634 0.511335 -2.41929) 73697
(-0.261188 -1.24289 1.6416) 148888
(-0.00432754 1.75753 1.29778) 72401
(-0.0794059 2.38518 1.18707) 165199
(0.288215 0.639101 -1.32017) 48507
(-0.728105 -2.20217 1.40884) 215047
(-0.111317 -0.941046 2.6491) 194962
(-0.588615 0.203197 2.43307) 195115
(-0.0723448 0.0785599 1.68112) 209134
(0.0240332 -0.325619 -1.83115) 86051
(-0.739084 -0.497181 -1.39485) 147610
(0.0435078 -2.60031 -1.17716) 59458
(-0.290881 1.89247 -0.0474277) 143763
(-0.363158 -1.76085 -0.0267702) 174005
(-0.662724 -2.7221 -0.130918) 9038
(-0.590341 -1.28889 -0.587919) 120965
(-0.0836403 -1.48888 2.11112) 137605
(0.361638 -1.80605 2.06575) 221698
(0.683252 2.23296 1.14802) 41287
(0.289421 -2.52978 -1.48811) 43882
(0.431021 1.13436 -2.12635) 148587
(-0.419736 2.15417 0.852337) 88048
(0.952566 -1.85381 0.098481) 158052
(0.474762 -1.46283 1.87477) 58647
(0.498799 -2.63014 0.553424) 25640
(0.39333 1.70689 -0.989439) 130577
(0.50367 -1.66162 1.65335) 4814
(0.283692 2.45919 1.1569) 226504
(-0.61399 -0.0252352 2.25815) 114590
(0.578069 -2.59217 -0.484787) 119593
(0.600802 0.380477 -2.70586) 538
(-0.617455 0.542795 2.613) 41494
(-0.953817 0.618843 1.89447) 138913
(0.479807 1.31634 -0.0639471) 212653
(-0.340169 -2.65538 -1.13867) 155928
(-0.320753 -0.717661 -1.4492) 111464
(-0.00833793 -1.38201 1.80487) 218710
(-0.229445 2.53767 -1.46657) 126991
(-0.0193763 1.23322 -0.755736) 8450
(-0.503478 -1.73433 -1.05613) 98020
(-0.986925 2.01368 -0.0471852) 189110
(-0.586833 -0.879713 -2.65514) 125697
(0.339508 -1.75443 -0.855891) 163776
(0.00867462 -2.19784 1.07791) 50590
(-0.841997 -1.90972 0.979919) 175158
(0.203633 -0.178244 1.2502) 161427
(-0.442966 0.124918 -2.43877) 227002
(0.803018 0.542244 1.81492) 99490
(0.6242 -2.46921 0.506939) 149102
(0.638726 2.1551 -0.777073) 102473
(-0.702195 0.186771 2.35228) 138282
(-0.86229 -1.14933 1.27725) 164690
(-0.479534 -1.17504 1.51655) 126727
(-0.282147 2.2171 -0.747648) 136959
(-0.208673 2.01157 0.0902254) 20227
(-0.300946 -1.52979 1.29344) 43337
(-0.380428 2.09337 0.91604) 4113
(-0.142715 -0.0257028 -2.80569) 93142
(-0.738461 1.19302 -2.12402) 27807
(-0.0619788 -1.86011 -1.09334) 138796
(0.342288 2.86523 -0.334849) 225921
(0.732532 -2.40866 0.975322) 58371
(0.987174 0.0716845 1.97191) 191653
(0.582642 -1.43107 -0.556449) 199785
(0.177037 -0.309763 1.63779) 114912
(0.303956 -2.41523 0.177241) 18821
(0.977881 1.29348 1.61824) 111413
(-0.684751 1.08678 -0.724566) 31960
(-0.388608 1.52781 -0.611399) 47432
(-0.701326 -2.44701 -0.750189) 28387
(-0.563964 -1.28678 -1.6581) 167393
(-0.250169 0.311944 1.77739) 182232
(-0.127649 -2.4722 -0.354967) 221043
(-0.475797 -0.691359 2.74289) 213465
(-0.630399 1.84802 1.27399) 205910