/*--------------------------------*- C++ -*----------------------------------*\
| =========                 |                                                 |
| \\      /  F ield         | OpenFOAM Extend Project: Open source CFD        |
|  \\    /   O peration     | Version:  1.6-ext                               |
|   \\  /    A nd           | Web:      www.extend-project.de                 |
|    \\/     M anipulation  |                                                 |
\*---------------------------------------------------------------------------*/
FoamFile
{
    version     2.0;
    format      ascii;
    class       vectorField;
    location    "0";
    object      U;
}
// * * * * * * * * * * * * * * * * * * * * * * * * * * * * * * * * * * * * * //


10000
(
(1.31009 1.18345 0.939738)
(0.214764 1.03621 1.6971)
(1.34698 0.307121 1.44614)
(1.06766 0.981425 1.37728)
(0.337299 0.169698 1.96403)
(0.873674 1.26741 1.27685)
(0.154242 0.571724 1.91032)
(0.671485 0.323218 1.85597)
(0.933693 0.898575 1.52341)
(0.000173339 0.231055 1.98661)
(1.03856 0.00409626 1.7092)
(0.223773 1.961 0.323118)
(0.14641 0.22507 1.9819)
(1.79218 0.079483 0.884173)
(1.31947 0.972356 1.14609)
(1.6173 0.862839 0.7999)
(1.31121 0.754348 1.30831)
(0.760933 1.24751 1.36554)
(1.88177 0.596476 0.321191)
(1.37561 1.05006 1.00253)
(1.61734 1.04209 0.546126)
(0.264322 1.33409 1.46641)
(1.36097 1.22897 0.798363)
(1.42208 0.947106 1.03955)
(1.38396 0.588869 1.31829)
(0.518088 1.93131 0.0405124)
(0.108332 0.915387 1.77492)
(1.00641 1.61474 0.616243)
(1.13595 0.843044 1.41383)
(0.852656 1.64421 0.754677)
(1.3276 1.40356 0.517202)
(1.13976 1.60039 0.373753)
(1.17734 0.930157 1.32238)
(0.638536 1.81198 0.555884)
(1.39069 1.43636 0.0532302)
(1.18374 0.815008 1.39087)
(0.952254 1.73277 0.301225)
(0.68584 0.0633048 1.87766)
(1.3886 1.3366 0.534127)
(0.0463 1.26971 1.54457)
(1.76203 0.85497 0.405324)
(1.04437 1.28685 1.11951)
(1.21663 0.452358 1.52157)
(0.829109 1.8068 0.219244)
(1.21996 0.578742 1.47538)
(1.36999 0.523026 1.35998)
(1.13288 1.60054 0.393514)
(1.70169 0.0737955 1.04824)
(0.848235 1.57278 0.89825)
(1.81445 0.521315 0.660297)
(1.75656 0.11367 0.949512)
(0.958021 0.915494 1.49802)
(1.76319 0.914191 0.235382)
(0.909987 1.20495 1.31149)
(1.03588 1.42228 0.95082)
(1.22711 1.30128 0.894915)
(1.13793 1.16209 1.1639)
(1.28423 1.46468 0.453284)
(0.940428 1.6808 0.538975)
(1.38717 0.848381 1.16448)
(1.3728 0.792263 1.21973)
(1.13645 0.323563 1.61363)
(0.268652 1.65159 1.09548)
(1.73383 0.984446 0.157192)
(1.40661 1.07934 0.925453)
(0.594911 0.558826 1.82587)
(0.804985 1.82263 0.173214)
(1.78339 0.531203 0.733038)
(1.44048 0.278454 1.35922)
(0.282021 1.56159 1.21733)
(0.353983 0.580786 1.88079)
(1.74799 0.933431 0.270592)
(1.25477 1.5556 0.0753043)
(0.478462 1.716 0.909076)
(0.0111233 1.63942 1.1455)
(1.29744 1.16833 0.975524)
(1.06846 1.01473 1.3523)
(1.58465 1.0235 0.664324)
(1.44335 1.21118 0.670663)
(1.01743 1.10987 1.31645)
(0.33692 1.89289 0.55086)
(1.13994 1.15262 1.17132)
(0.472314 1.90837 0.367472)
(0.506898 0.243837 1.91927)
(0.539837 1.25894 1.45727)
(1.81015 0.0652206 0.848005)
(1.41848 0.857706 1.11905)
(1.03414 1.24801 1.17176)
(1.72663 0.129831 1.00095)
(1.68221 0.741483 0.787627)
(0.690896 1.17228 1.46575)
(0.161092 1.54933 1.25444)
(0.468953 1.56962 1.14733)
(1.43284 0.795985 1.14603)
(1.59068 0.847686 0.866696)
(1.46146 0.903388 1.02373)
(1.91017 0.45501 0.379778)
(1.55544 0.737002 1.01855)
(0.807966 1.57556 0.929952)
(0.411835 0.692954 1.83036)
(1.52992 0.930043 0.891276)
(1.4179 1.35845 0.379701)
(1.40361 0.312105 1.39014)
(1.1997 1.30259 0.929513)
(1.89164 0.142461 0.633549)
(1.57839 1.11337 0.518747)
(0.120636 0.688835 1.87375)
(1.70226 0.331103 0.996335)
(1.33916 1.28264 0.749329)
(0.457842 1.28909 1.45898)
(1.49036 0.645205 1.16728)
(0.0635468 1.17162 1.61965)
(1.97407 0.242026 0.210843)
(0.909351 1.78089 0.0387134)
(0.607105 1.21618 1.46708)
(1.44296 1.24267 0.611252)
(0.803895 1.35459 1.23241)
(0.671723 1.45503 1.19652)
(0.952265 0.249218 1.741)
(1.28234 1.17279 0.990037)
(1.64684 1.09175 0.309827)
(1.43277 1.05568 0.912529)
(0.847114 1.77436 0.366115)
(0.181838 0.72968 1.85324)
(1.44433 0.334117 1.34249)
(1.49544 0.655954 1.15472)
(0.604646 1.86071 0.414927)
(1.37925 0.519071 1.35212)
(1.15475 1.20487 1.1022)
(1.49593 0.673217 1.1441)
(1.15635 1.59976 0.321909)
(0.264719 0.992728 1.71593)
(1.22395 1.2061 1.02336)
(1.66384 0.498508 0.99153)
(0.141309 0.93158 1.76414)
(1.07652 1.25811 1.12173)
(0.651201 1.64304 0.936139)
(1.60064 0.836546 0.859146)
(1.25499 0.869609 1.29181)
(0.952142 1.45215 0.992313)
(1.16566 0.58629 1.51575)
(0.959389 0.365007 1.71649)
(0.793329 0.120453 1.83197)
(1.07621 1.48404 0.799623)
(1.67138 1.0259 0.392447)
(1.45742 0.400634 1.30974)
(0.567531 1.87142 0.419171)
(1.02464 1.21132 1.21772)
(1.50346 0.766013 1.07371)
(1.15474 1.37896 0.874673)
(0.711889 1.13788 1.48271)
(1.63928 0.529094 1.01628)
(1.30662 1.37841 0.626678)
(0.380303 1.95695 0.160397)
(1.56351 0.422886 1.17328)
(0.814003 1.01488 1.51902)
(1.08234 0.848731 1.45197)
(0.346464 1.47055 1.31051)
(1.66026 1.11271 0.0734433)
(1.23493 1.25998 0.942022)
(1.46459 1.23619 0.57169)
(0.494759 0.677248 1.81564)
(1.71005 0.546032 0.881799)
(0.668044 1.55871 1.06026)
(1.53473 0.706422 1.07031)
(1.44156 1.37858 0.14642)
(1.77878 0.625581 0.66677)
(1.52115 0.00613439 1.29848)
(1.86962 0.24278 0.667527)
(0.00262412 1.14631 1.63889)
(0.372589 1.55797 1.19745)
(0.900354 1.27221 1.25333)
(1.0746 0.507369 1.60867)
(1.96487 0.195327 0.318033)
(0.451293 0.979689 1.6842)
(0.871397 1.77202 0.31717)
(1.39171 1.212 0.770842)
(1.08137 1.22653 1.15164)
(0.33014 1.77332 0.863911)
(0.176359 1.72259 1.00079)
(1.57434 0.337126 1.18651)
(1.03152 1.28388 1.13473)
(0.411652 1.67467 1.01294)
(0.428673 1.28658 1.47002)
(1.43589 0.17866 1.38069)
(1.55121 1.25669 0.120235)
(1.29478 0.402361 1.47026)
(0.362882 1.95987 0.16501)
(0.677525 0.967311 1.61408)
(1.35866 0.310716 1.4344)
(1.94653 0.0621414 0.455157)
(0.838692 1.40695 1.14764)
(0.615016 1.35631 1.33499)
(0.239828 1.85688 0.703185)
(0.271621 1.64161 1.10965)
(1.09128 1.52421 0.697046)
(0.764176 1.84825 0.00469929)
(1.17229 1.07478 1.21268)
(1.6618 0.970288 0.54494)
(1.32708 1.1984 0.89594)
(1.28903 1.08506 1.07752)
(1.10853 1.08929 1.25881)
(0.807996 1.50089 1.04617)
(1.90453 0.0392263 0.609281)
(1.60622 0.729135 0.942562)
(1.72261 0.289468 0.974068)
(1.69664 0.0106897 1.05892)
(0.932709 1.21655 1.28455)
(0.220474 1.71546 1.00428)
(0.489783 0.133047 1.93453)
(0.180192 1.42312 1.39365)
(1.51268 0.269401 1.28032)
(1.20218 1.47587 0.61367)
(1.91627 0.0921374 0.565182)
(1.3943 0.372116 1.38472)
(0.410224 1.38569 1.3826)
(1.94426 0.336 0.327029)
(1.85535 0.696766 0.268688)
(1.646 1.13569 0.029816)
(1.32111 1.44348 0.413568)
(1.14752 1.63791 0.0206824)
(1.14195 1.10989 1.21)
(0.612367 1.90134 0.0996006)
(1.06671 1.53748 0.705902)
(0.826194 1.48623 1.05286)
(0.651385 1.79257 0.601975)
(1.28898 1.03861 1.12241)
(1.23585 0.363697 1.52983)
(1.92268 0.52522 0.165627)
(0.429659 1.33685 1.42416)
(1.13087 1.60872 0.364888)
(1.44379 0.241507 1.36278)
(0.997942 0.10871 1.72982)
(1.60699 1.10196 0.450827)
(1.07178 0.663221 1.55288)
(0.349114 1.8318 0.722941)
(1.81269 0.70187 0.470682)
(1.19504 1.59407 0.175509)
(0.326424 1.16749 1.59073)
(0.248008 0.70568 1.85486)
(1.39002 1.43551 0.0845752)
(1.36821 0.558559 1.34759)
(0.49757 1.36873 1.37077)
(1.03299 1.45479 0.903612)
(1.97491 0.306605 0.0757045)
(1.91015 0.586998 0.0823178)
(1.00642 1.05261 1.37082)
(0.934271 0.657498 1.6416)
(1.85114 0.0668955 0.754203)
(1.29426 1.21735 0.918116)
(1.34899 1.16555 0.906488)
(0.201433 1.32531 1.48424)
(1.6061 1.15888 0.278293)
(1.23497 1.51037 0.440037)
(0.145402 1.57583 1.22295)
(1.35758 1.44448 0.265437)
(1.26051 1.24714 0.925077)
(0.999307 1.1744 1.27364)
(1.54058 1.15941 0.531398)
(1.11717 1.56667 0.545393)
(1.70377 0.218957 1.02431)
(0.0413741 0.422171 1.9545)
(0.430959 0.926021 1.71952)
(1.5294 0.891305 0.930858)
(0.838482 1.23772 1.32853)
(1.53036 0.656528 1.10768)
(0.160437 1.00106 1.72399)
(0.0447291 1.84301 0.775451)
(0.37772 1.81124 0.759442)
(1.82344 0.806584 0.156472)
(0.702127 1.87175 0.0597557)
(1.12483 0.898157 1.38855)
(0.239663 1.72083 0.990613)
(0.103431 1.56921 1.23567)
(1.27328 0.355413 1.50081)
(1.53974 0.762442 1.02366)
(1.10263 0.700516 1.51443)
(0.43044 1.54338 1.19695)
(1.69135 1.04131 0.234547)
(0.842151 1.25707 1.30788)
(1.80737 0.852041 0.086199)
(0.827995 1.75519 0.483469)
(0.883394 0.375137 1.75468)
(1.22849 1.39741 0.733515)
(0.4519 0.254495 1.93158)
(0.346386 1.21372 1.55142)
(0.798748 1.3098 1.28313)
(1.61371 0.430459 1.10029)
(0.133764 1.9886 0.166064)
(0.499261 1.67994 0.963606)
(1.48571 1.0887 0.779358)
(1.1684 0.785827 1.42032)
(0.776263 1.43641 1.15505)
(1.12172 1.3241 0.994245)
(0.34849 1.74018 0.922124)
(1.60251 1.05426 0.56612)
(0.506572 1.83668 0.608275)
(1.62475 0.333942 1.11744)
(0.4292 1.46163 1.29593)
(1.12442 0.539709 1.56346)
(1.05815 1.12008 1.27504)
(1.09151 1.65242 0.279474)
(1.27939 0.481105 1.46003)
(0.105123 1.36988 1.4534)
(1.11411 1.58402 0.499641)
(0.366258 1.11508 1.6194)
(1.51108 0.329585 1.26807)
(1.25183 1.5329 0.288335)
(1.23716 1.20882 1.00409)
(1.11069 1.64894 0.217622)
(1.613 0.78802 0.881616)
(1.13768 1.53011 0.603691)
(1.33035 1.16925 0.928978)
(1.82745 0.0811328 0.808601)
(0.839311 1.1897 1.37119)
(0.516948 1.26524 1.46012)
(1.09602 1.18538 1.18051)
(1.68579 0.104273 1.07109)
(0.740857 1.32628 1.30081)
(1.8307 0.266495 0.759945)
(0.173727 1.98405 0.182677)
(0.732851 1.70636 0.742472)
(1.0808 1.0382 1.32439)
(1.00826 1.17563 1.26543)
(1.18885 1.47201 0.647928)
(0.419172 0.620658 1.85448)
(1.77046 0.272271 0.889563)
(0.459978 1.93885 0.171149)
(0.529809 0.223771 1.91552)
(0.15207 1.46451 1.35354)
(1.55429 0.280074 1.22709)
(0.559695 0.374261 1.88326)
(0.889459 0.0569436 1.79042)
(1.48903 0.943722 0.944546)
(1.48693 0.954385 0.937119)
(1.77416 0.391133 0.836292)
(0.993891 0.464953 1.67212)
(1.57388 1.11573 0.527296)
(1.25224 0.65789 1.41389)
(0.694421 1.61537 0.953073)
(0.888203 1.43545 1.07265)
(1.74694 0.70785 0.668691)
(1.19851 1.09407 1.16901)
(1.07417 1.51942 0.733164)
(1.43331 0.056432 1.39371)
(1.24978 0.999082 1.19995)
(0.871257 1.32055 1.22354)
(0.581875 0.0766553 1.91195)
(1.72286 0.961674 0.327006)
(1.7196 0.757141 0.68535)
(0.414805 1.14961 1.58314)
(1.85611 0.732771 0.13387)
(1.22654 1.57626 0.104845)
(1.99997 0.0105957 8.1581e-05)
(1.34084 0.254699 1.46194)
(1.37766 1.44682 0.0935581)
(0.930184 0.760955 1.59866)
(1.39474 0.192205 1.42048)
(0.699885 1.60472 0.966978)
(0.65802 1.87451 0.230696)
(0.281382 1.97405 0.154805)
(1.42715 1.29115 0.544226)
(1.28875 0.22331 1.51303)
(0.523973 1.26687 1.45619)
(0.698203 1.34272 1.30753)
(1.81213 0.627152 0.568227)
(1.69912 0.884875 0.574436)
(1.14575 0.51199 1.55728)
(1.23377 1.00305 1.21314)
(0.716617 1.59863 0.964808)
(1.39376 0.96468 1.06152)
(1.06742 0.651302 1.5609)
(1.48627 0.338145 1.29486)
(1.32226 1.36185 0.63007)
(0.938851 1.31823 1.17509)
(0.496026 0.875987 1.72818)
(0.894188 1.65175 0.687128)
(0.608754 1.61338 1.01312)
(1.66991 0.547269 0.954927)
(1.93616 0.154877 0.476742)
(1.33058 0.95927 1.14427)
(0.898379 0.785743 1.60484)
(0.821418 1.40114 1.16708)
(1.56756 1.21803 0.243221)
(0.80656 1.02454 1.5165)
(1.4384 0.482106 1.30329)
(0.211207 0.230177 1.97545)
(1.65143 1.12387 0.0984043)
(1.93235 0.430415 0.284171)
(0.738798 1.67077 0.814062)
(1.18517 0.515726 1.52624)
(0.749859 1.42618 1.18479)
(1.80174 0.181286 0.84904)
(1.41081 0.197091 1.40384)
(1.15862 0.957411 1.31946)
(1.17188 0.289098 1.59471)
(1.30989 1.49999 0.184945)
(0.359495 1.02953 1.67656)
(1.38812 1.42377 0.214531)
(1.41886 1.28206 0.585785)
(0.0356131 1.18358 1.61179)
(0.354961 0.158999 1.96182)
(0.762782 1.29392 1.32058)
(0.46926 1.54618 1.17861)
(0.556265 1.75544 0.780384)
(1.10008 1.66688 0.106539)
(1.02156 1.20177 1.2297)
(0.487532 1.87596 0.493037)
(1.99105 0.186711 0.0294036)
(0.8532 0.867558 1.58726)
(0.149731 1.40857 1.41192)
(1.92468 0.166421 0.517593)
(0.173923 0.202845 1.98207)
(0.965584 1.66103 0.555539)
(1.20654 0.87025 1.33676)
(0.165578 0.210214 1.98202)
(1.18374 1.07827 1.19838)
(1.31308 1.43887 0.453276)
(1.86075 0.682265 0.268529)
(1.37042 0.814225 1.20789)
(0.0680987 1.53845 1.27613)
(0.428311 1.43246 1.32838)
(1.23529 0.750047 1.38257)
(0.263855 0.516985 1.91392)
(1.32965 0.541662 1.39235)
(0.239427 0.817685 1.80944)
(1.39137 1.34832 0.496111)
(0.00580146 1.70506 1.04535)
(1.59011 1.18212 0.272286)
(0.74486 0.196951 1.84564)
(0.143472 1.98312 0.216026)
(1.44106 1.00752 0.953018)
(0.923017 1.58022 0.806821)
(1.55815 1.07766 0.640943)
(0.823506 0.0831841 1.82069)
(0.9235 0.0212433 1.77389)
(0.0896428 1.97496 0.302463)
(1.32094 0.231185 1.4838)
(1.53652 1.08371 0.681668)
(0.018397 1.69728 1.05779)
(1.35116 1.45096 0.262858)
(0.366403 1.75835 0.879747)
(1.34067 1.4811 0.0946828)
(0.497376 0.592353 1.84438)
(1.23614 1.37124 0.76919)
(1.54309 0.329926 1.22883)
(1.78173 0.285362 0.862559)
(0.356433 1.72148 0.953648)
(0.84037 1.24037 1.32487)
(0.569539 0.623691 1.81291)
(0.644424 0.411042 1.84818)
(1.94069 0.357629 0.325283)
(1.17787 0.0511233 1.61555)
(1.41533 1.25386 0.651677)
(0.634763 0.838316 1.70126)
(0.113329 1.38472 1.43865)
(1.07367 1.62275 0.462497)
(0.972778 1.19577 1.27429)
(1.8015 0.679057 0.541745)
(1.39048 0.884194 1.13348)
(0.668451 0.139878 1.87979)
(0.636815 1.34634 1.33486)
(0.957321 0.43363 1.70162)
(0.87514 0.219266 1.78495)
(0.60662 0.504853 1.8377)
(1.437 1.14163 0.794805)
(0.0955492 1.61307 1.17851)
(0.942737 1.25117 1.24331)
(1.60333 0.636406 1.01209)
(1.53116 0.769444 1.03127)
(0.225446 1.67403 1.07088)
(1.7534 0.0717857 0.9594)
(0.034117 1.46922 1.35655)
(0.583655 1.89155 0.285312)
(1.11198 1.12344 1.22531)
(1.36084 1.26386 0.742145)
(0.206538 1.83965 0.756977)
(1.71798 0.940123 0.405857)
(0.963362 0.115394 1.74889)
(1.20018 1.59303 0.147651)
(0.995538 0.949556 1.45164)
(1.09635 1.28697 1.06851)
(1.48371 1.2466 0.494578)
(0.462664 0.605952 1.84899)
(1.30665 1.49298 0.252321)
(1.51551 1.23292 0.427952)
(1.75988 0.41362 0.855426)
(1.49738 0.0393644 1.32525)
(0.772829 1.08143 1.4944)
(1.7036 1.01146 0.273278)
(1.41193 0.467168 1.33724)
(1.40403 1.35425 0.441237)
(0.969644 0.767927 1.57165)
(0.268115 0.308136 1.95785)
(0.571828 0.0293847 1.91629)
(1.99877 0.054223 0.0443205)
(1.31588 0.922882 1.19027)
(0.540669 1.55774 1.13186)
(0.902537 1.50228 0.963626)
(1.152 0.731319 1.46221)
(1.30555 1.50669 0.159446)
(1.49103 0.36336 1.2825)
(1.62493 0.849195 0.799052)
(1.46249 0.585856 1.23203)
(0.133313 0.554412 1.91699)
(1.75014 0.822569 0.510291)
(1.64688 0.560202 0.986888)
(1.06888 1.58352 0.59157)
(0.319884 1.54862 1.22452)
(1.19051 0.541538 1.51308)
(0.523317 1.04684 1.62181)
(0.272565 1.90567 0.542324)
(0.491494 1.29136 1.44597)
(1.00813 1.05584 1.36707)
(0.946296 1.52702 0.87906)
(1.67521 0.487754 0.977628)
(1.9014 0.551439 0.28388)
(0.24854 1.33217 1.47091)
(0.693619 1.6745 0.845534)
(1.51731 0.98111 0.857427)
(1.09303 1.50513 0.734744)
(1.43492 1.04129 0.925587)
(0.596591 0.28637 1.88735)
(1.54591 0.303002 1.23221)
(0.310886 0.716036 1.84137)
(1.78834 0.731191 0.516919)
(0.833757 0.358804 1.78216)
(0.23056 1.94621 0.39888)
(1.13843 1.31641 0.985414)
(1.15523 0.793988 1.42654)
(0.310013 1.06509 1.66417)
(0.595909 0.139069 1.90409)
(0.938757 0.728043 1.60894)
(0.247133 1.85111 0.715756)
(0.181531 1.41545 1.40127)
(1.14936 0.591265 1.52623)
(1.44942 0.252304 1.35482)
(0.279007 1.72088 0.980164)
(0.186658 0.673948 1.87375)
(1.58804 0.969594 0.733487)
(0.273171 1.97905 0.0934607)
(1.36062 0.880705 1.17178)
(1.25063 0.890187 1.28198)
(1.26688 0.654165 1.40253)
(1.70448 0.972427 0.3862)
(0.428351 1.29444 1.46319)
(0.0529413 1.04282 1.70579)
(0.276427 1.76257 0.90384)
(1.12407 0.275712 1.63109)
(1.16778 1.60377 0.253365)
(1.05791 1.69228 0.130429)
(1.99718 0.0961752 0.0449808)
(0.195786 1.29793 1.50899)
(1.46508 1.21898 0.606326)
(0.455131 0.918587 1.71728)
(1.88194 0.35251 0.577949)
(1.31083 1.41295 0.534127)
(1.54921 0.943599 0.842367)
(0.633183 1.8469 0.433641)
(0.569939 1.68591 0.91262)
(1.26582 1.36368 0.733535)
(0.0794824 1.56022 1.24876)
(1.09389 0.339145 1.63963)
(1.6827 0.329887 1.02942)
(0.171412 1.55906 1.24095)
(1.49242 0.394717 1.27157)
(1.0778 0.83027 1.46595)
(1.37983 1.4206 0.279232)
(0.186048 1.46217 1.35183)
(1.57867 0.106115 1.22334)
(0.146273 1.94185 0.455883)
(1.32252 0.915326 1.18875)
(0.758484 1.47961 1.11151)
(1.72377 0.726074 0.708112)
(1.33594 1.16071 0.931672)
(0.115132 1.08222 1.67796)
(0.611884 1.70552 0.846643)
(1.14446 1.46396 0.739613)
(1.41774 0.661639 1.24589)
(0.686492 1.29004 1.36548)
(1.56658 0.20429 1.22641)
(1.37865 0.849131 1.17401)
(1.31884 1.50317 0.0336816)
(1.36027 1.38177 0.490258)
(0.235649 1.51157 1.28827)
(1.48637 1.08284 0.786227)
(1.25828 1.52375 0.308073)
(0.787219 1.35555 1.24208)
(0.383945 1.64687 1.0679)
(0.24477 1.4292 1.37749)
(0.0573753 1.88329 0.670759)
(0.632801 0.310135 1.87173)
(1.29708 0.740437 1.33016)
(0.95358 1.04456 1.41407)
(1.71165 0.959652 0.386405)
(1.94462 0.3117 0.348292)
(0.320609 1.93401 0.395985)
(0.320107 1.75454 0.905051)
(0.903931 0.412174 1.73581)
(0.153191 0.961135 1.74721)
(1.18813 0.602267 1.49185)
(0.919717 1.72209 0.434177)
(1.89262 0.503242 0.405896)
(1.29083 1.02971 1.12848)
(0.783947 1.2857 1.31621)
(1.6758 1.06046 0.259043)
(1.45178 0.708257 1.17929)
(0.103442 0.956246 1.75354)
(0.794557 0.69646 1.69812)
(1.01707 0.0286657 1.72184)
(0.117201 1.67707 1.08338)
(0.927067 1.37862 1.11353)
(1.5753 1.03138 0.674307)
(0.415011 1.04671 1.65293)
(1.13081 0.648794 1.51669)
(0.669795 1.69962 0.814036)
(0.896081 0.0477145 1.78739)
(0.521374 1.57357 1.11894)
(0.161957 1.70316 1.03587)
(1.74893 0.947798 0.207159)
(0.90262 1.36688 1.14757)
(0.210807 1.12858 1.63764)
(0.567424 0.879983 1.70401)
(0.184227 0.871459 1.7907)
(0.972954 0.347089 1.71257)
(1.94979 0.210948 0.392197)
(0.25777 0.0565839 1.98251)
(0.132965 0.127295 1.99151)
(1.25629 1.55106 0.126304)
(0.546482 1.8483 0.534004)
(0.647113 1.79998 0.584223)
(0.320529 1.43267 1.35821)
(0.528983 0.867051 1.7229)
(1.17681 1.07674 1.20655)
(1.2602 1.04428 1.14951)
(0.792275 1.74844 0.561479)
(0.269292 0.580261 1.89493)
(0.102094 1.35948 1.46335)
(0.953517 1.65424 0.59524)
(1.3325 1.36932 0.591112)
(1.15417 1.33227 0.944949)
(0.630384 1.38639 1.29635)
(0.156432 0.734522 1.85365)
(0.714078 1.71226 0.747176)
(0.855803 1.37518 1.17324)
(1.38801 0.346666 1.39758)
(1.87241 0.689897 0.134562)
(0.682785 0.387247 1.83952)
(0.00380781 0.8992 1.78646)
(0.75926 1.84866 0.0772915)
(1.22976 0.858503 1.32313)
(0.171301 1.04287 1.69796)
(1.43201 0.32305 1.35831)
(0.492563 1.93725 0.0666266)
(1.24892 0.378352 1.5156)
(0.279266 1.97867 0.0829552)
(1.34946 0.332386 1.43822)
(0.893884 0.594133 1.6876)
(1.80864 0.785335 0.334775)
(1.57265 0.580299 1.09088)
(1.02008 1.382 1.02446)
(1.06205 0.953042 1.40135)
(0.886023 1.3881 1.13497)
(1.3125 1.13405 0.995631)
(1.1478 1.16128 1.15498)
(0.122678 0.349718 1.96536)
(1.23521 0.792857 1.35854)
(1.04329 1.67666 0.316815)
(0.868086 1.63569 0.755605)
(0.763765 1.16519 1.43492)
(0.412462 1.43923 1.32609)
(1.60174 1.14151 0.362487)
(0.350842 1.48821 1.28924)
(0.914387 1.4879 0.974709)
(1.16708 1.1116 1.18417)
(1.92672 0.206283 0.495175)
(1.04912 1.43803 0.911817)
(0.671984 1.22566 1.43045)
(1.38084 1.4319 0.207209)
(1.73618 0.904931 0.408393)
(1.51558 0.876682 0.966661)
(1.629 0.0934619 1.15656)
(0.582406 1.84484 0.507329)
(1.54033 0.80014 0.993566)
(0.13053 1.94821 0.432948)
(1.65588 1.09894 0.224505)
(1.29609 1.33909 0.725943)
(0.431816 1.03803 1.65409)
(1.04203 0.364542 1.66771)
(1.16214 1.42312 0.790051)
(0.273449 1.38305 1.41859)
(1.35144 1.36049 0.568043)
(1.27553 1.08937 1.08918)
(1.84255 0.73492 0.254755)
(1.96813 0.230918 0.270449)
(0.417691 0.214562 1.94409)
(1.10709 1.56334 0.574739)
(1.649 0.378813 1.06644)
(1.46683 1.29965 0.399147)
(0.549823 1.37793 1.34127)
(1.96659 0.329662 0.154369)
(1.09926 1.26315 1.09365)
(1.45709 0.25264 1.3465)
(0.95508 1.73026 0.30662)
(0.940574 1.30283 1.19078)
(1.77551 0.739385 0.548523)
(1.22742 1.43012 0.669468)
(0.487354 0.268749 1.921)
(0.386074 1.89995 0.491053)
(1.89126 0.280482 0.586911)
(1.79939 0.83484 0.255385)
(1.26536 0.321592 1.51507)
(1.38097 0.781013 1.21776)
(0.495796 0.911134 1.70998)
(1.10087 1.21218 1.14835)
(0.032831 1.85596 0.744531)
(1.91279 0.245018 0.530294)
(1.10755 1.12285 1.22985)
(1.93722 0.439017 0.233364)
(1.60743 0.865184 0.817075)
(1.839 0.21284 0.756825)
(1.02142 1.67949 0.368805)
(1.39489 1.17022 0.827572)
(1.8929 0.602262 0.232795)
(1.09548 0.0887732 1.67094)
(0.0573529 1.8645 0.721356)
(1.51236 0.587338 1.16952)
(1.27785 0.556265 1.43446)
(1.47324 0.749006 1.1263)
(0.352683 1.41725 1.36639)
(1.16607 1.60092 0.278103)
(1.501 1.32072 0.0517695)
(0.418306 1.27724 1.48111)
(1.12008 1.00693 1.31587)
(1.08233 1.20172 1.17662)
(0.869353 1.14376 1.39142)
(1.46148 1.02232 0.904962)
(0.94894 1.31853 1.16661)
(0.692391 1.71306 0.765529)
(0.859082 1.42963 1.10369)
(1.38304 1.44342 0.0612607)
(0.333406 1.33268 1.45355)
(1.63436 0.414564 1.07564)
(0.478339 1.91444 0.325745)
(1.69506 0.167322 1.04823)
(0.0466468 1.9888 0.206167)
(0.350085 1.04053 1.67174)
(0.727268 1.34502 1.28919)
(1.43514 1.32587 0.427143)
(0.341241 1.15986 1.5932)
(0.833914 0.35856 1.78214)
(0.376418 1.80377 0.77763)
(0.11152 1.7712 0.922171)
(0.203985 0.510415 1.92298)
(1.26251 1.12268 1.07036)
(0.324165 0.757857 1.82224)
(0.825276 1.34166 1.23242)
(1.27459 0.494818 1.45965)
(1.40729 1.06048 0.945999)
(1.55385 0.94835 0.828358)
(1.27829 1.0803 1.09496)
(0.102877 1.98409 0.229818)
(1.42371 0.878692 1.09588)
(0.7599 1.36695 1.2466)
(1.3508 1.44464 0.297263)
(1.91362 0.576722 0.0738374)
(0.978433 1.28771 1.17664)
(1.12885 0.285753 1.62605)
(0.587844 0.602934 1.81409)
(0.848628 1.31195 1.24844)
(0.173345 1.45294 1.36342)
(0.594762 1.68013 0.907426)
(0.996261 1.26965 1.1813)
(1.29834 0.988637 1.15625)
(0.853302 1.22482 1.33105)
(1.36738 1.27199 0.715769)
(1.41298 0.612837 1.27589)
(1.14445 1.62469 0.225014)
(1.82643 0.337012 0.74202)
(0.707904 1.69934 0.781743)
(1.13594 1.1553 1.17257)
(0.906875 1.50907 0.94883)
(0.562907 1.22726 1.47545)
(1.43029 1.27507 0.57313)
(0.708854 1.24582 1.3948)
(1.22372 1.28513 0.922475)
(1.46785 0.451652 1.28119)
(1.45441 1.34562 0.272017)
(1.53076 0.562921 1.15754)
(1.07364 1.17729 1.20884)
(0.312456 0.904052 1.75643)
(1.32311 1.41139 0.507312)
(0.395924 0.896607 1.74337)
(1.25549 1.55604 0.0499447)
(1.82398 0.801692 0.174336)
(0.949743 0.529462 1.67859)
(1.38801 0.496325 1.3517)
(0.406699 1.69451 0.981438)
(1.0391 0.422753 1.65577)
(0.91089 0.326967 1.75025)
(0.474955 1.57926 1.13153)
(1.14578 0.845264 1.40453)
(1.51748 0.545533 1.18307)
(1.11177 0.350019 1.62526)
(1.27033 0.287337 1.5178)
(0.678529 1.33516 1.3255)
(0.337068 1.97106 0.036222)
(1.56833 1.15169 0.462527)
(0.602111 1.20921 1.47488)
(0.329425 1.35569 1.43303)
(1.41505 0.0846727 1.41084)
(1.15333 0.814431 1.41652)
(0.992225 1.12 1.32706)
(0.312491 1.31102 1.47769)
(0.970721 1.73616 0.208449)
(0.0236276 0.572999 1.91602)
(0.643526 0.892901 1.66991)
(0.434502 1.65694 1.03236)
(1.20766 1.10825 1.14601)
(1.55062 1.08009 0.654981)
(0.964072 1.11067 1.35535)
(1.92023 0.405414 0.385195)
(1.48794 0.790638 1.07746)
(1.1144 1.03688 1.29731)
(1.45164 0.8274 1.09915)
(1.6046 0.935288 0.741948)
(0.81003 1.33504 1.2496)
(1.26719 1.51416 0.318663)
(0.336509 1.72404 0.956266)
(0.616372 0.633937 1.79394)
(0.472725 1.21264 1.51856)
(0.947727 1.44433 1.00783)
(0.522667 1.80579 0.682601)
(1.33906 1.43098 0.399021)
(1.38433 1.04883 0.991758)
(0.219288 1.31933 1.48704)
(0.265782 1.67774 1.05572)
(0.242338 1.97808 0.168773)
(0.356144 1.24108 1.52738)
(0.556047 1.3469 1.36992)
(0.527852 0.421015 1.88258)
(0.28234 1.2257 1.55497)
(1.03323 0.977793 1.40583)
(1.41672 1.35527 0.395143)
(1.74169 0.635199 0.750351)
(0.114331 1.12251 1.65133)
(1.39732 0.771918 1.20484)
(0.981895 1.48456 0.912129)
(1.99922 0.00784166 0.055396)
(1.31649 1.38419 0.592339)
(1.26881 0.123436 1.54107)
(0.298034 0.240119 1.96304)
(0.288735 0.0479165 1.97847)
(1.3014 1.34408 0.706961)
(1.0562 1.57683 0.6309)
(0.904782 1.77658 0.158548)
(1.20445 1.17207 1.08423)
(1.52386 0.740817 1.06257)
(0.954674 0.178892 1.74831)
(1.01695 1.25131 1.18324)
(1.71587 1.00976 0.190205)
(0.89225 1.66373 0.660211)
(1.91018 0.585321 0.0928426)
(1.79088 0.0999605 0.884731)
(0.643772 1.0148 1.59867)
(0.909254 1.47027 1.00576)
(0.298766 1.43917 1.35629)
(0.231672 1.91036 0.544836)
(1.33269 1.30491 0.721907)
(0.2578 1.14114 1.62214)
(1.54459 0.85157 0.942913)
(1.96692 0.127519 0.339085)
(1.71888 0.433845 0.925868)
(1.46267 0.536506 1.2541)
(1.6005 0.000657462 1.19933)
(1.36172 1.41947 0.361711)
(1.66535 0.112553 1.10178)
(1.24114 1.18545 1.02679)
(1.87901 0.378452 0.571056)
(1.45036 0.740879 1.16084)
(1.77231 0.891305 0.253937)
(0.680202 1.28081 1.37726)
(1.70119 0.973165 0.39864)
(0.387352 1.16918 1.57575)
(0.545345 1.84535 0.54523)
(0.543744 1.34946 1.37233)
(1.69629 1.05857 0.0449896)
(0.928083 1.57745 0.806422)
(1.46193 1.35818 0.134572)
(1.35178 0.928794 1.14457)
(0.663537 1.14796 1.4973)
(1.28307 0.0942799 1.53129)
(0.294518 1.57306 1.19948)
(0.771177 0.568158 1.7557)
(1.43649 0.383236 1.33777)
(1.04481 1.67063 0.342585)
(0.620004 0.92301 1.66242)
(1.47789 0.973389 0.931863)
(1.16082 1.6128 0.226674)
(1.05126 1.70141 0.00818374)
(1.26024 1.29013 0.8645)
(0.0755593 0.0115761 1.99854)
(1.64993 0.290069 1.09252)
(1.18443 1.5069 0.571295)
(1.49405 0.323335 1.28968)
(1.28111 1.48273 0.400307)
(1.1944 0.656871 1.46354)
(1.58548 0.802181 0.918018)
(0.971114 0.500627 1.6752)
(0.960262 0.943193 1.47928)
(0.39179 1.71905 0.944117)
(0.209938 1.26402 1.53564)
(1.77284 0.598262 0.706489)
(0.96033 0.956631 1.47059)
(1.41123 1.27594 0.616777)
(0.478407 0.776801 1.77981)
(1.08867 1.66432 0.211744)
(0.617822 1.19945 1.47635)
(1.28514 0.675868 1.37536)
(1.14277 0.103493 1.6381)
(0.699816 0.118353 1.86983)
(0.445892 1.93893 0.204234)
(1.56388 0.0565329 1.24543)
(0.891042 1.05479 1.44688)
(0.152693 1.5778 1.21953)
(1.4964 0.881175 0.992121)
(1.23743 1.22386 0.98535)
(0.889251 0.917902 1.5384)
(0.958851 1.37812 1.08692)
(1.82854 0.0106743 0.810149)
(1.31966 0.0960525 1.49975)
(1.08881 1.5098 0.731419)
(1.31544 0.276208 1.48099)
(1.13993 1.14761 1.17624)
(1.60162 0.772156 0.915744)
(1.96696 0.155514 0.32694)
(0.359553 1.53548 1.23005)
(1.34788 1.20104 0.860657)
(1.36161 0.806429 1.22298)
(0.724271 1.03172 1.55274)
(0.561827 1.17313 1.51924)
(0.0059499 0.352474 1.96869)
(1.11766 1.23728 1.10452)
(1.59116 1.17215 0.307018)
(1.67275 0.545637 0.950881)
(1.55695 0.141253 1.24739)
(1.44606 0.422422 1.31547)
(1.4143 1.34446 0.438391)
(0.518729 1.56957 1.12578)
(1.42043 1.38974 0.225804)
(1.12861 1.05072 1.27367)
(1.53605 1.18737 0.480324)
(0.681901 0.183531 1.87118)
(0.19462 1.23366 1.56212)
(0.402482 1.22523 1.52866)
(1.00974 1.48133 0.886616)
(1.72144 0.732598 0.707061)
(0.166758 1.53665 1.26922)
(1.49103 1.32039 0.18272)
(1.40933 1.36322 0.39425)
(0.104183 1.05094 1.69843)
(1.42066 1.40704 0.0444179)
(1.69981 0.396829 0.976302)
(0.775491 0.152399 1.83722)
(0.856644 0.165448 1.79966)
(0.546341 1.29359 1.42413)
(1.57622 0.429543 1.15369)
(0.925132 1.12912 1.36719)
(1.98135 0.0377247 0.26988)
(1.01754 1.35838 1.05803)
(1.39394 1.29123 0.62423)
(0.503772 1.84606 0.581619)
(1.8119 0.818664 0.216312)
(0.952152 1.27334 1.21327)
(0.485476 1.76698 0.801319)
(1.95234 0.304484 0.309295)
(0.471598 1.73091 0.884057)
(0.350325 1.80987 0.775661)
(0.751333 0.279581 1.8323)
(0.282429 0.487204 1.91908)
(0.240452 1.53705 1.25685)
(0.522322 1.62558 1.04147)
(1.30786 0.993547 1.14121)
(1.30276 0.237805 1.49875)
(1.09888 1.31598 1.02988)
(1.34776 1.37077 0.551848)
(1.04603 1.69427 0.187813)
(0.158819 1.87932 0.665519)
(0.0368248 1.96845 0.35191)
(0.511891 0.586171 1.84238)
(0.309047 1.04725 1.67564)
(1.44617 0.457689 1.3035)
(1.18751 0.730894 1.43374)
(1.18546 1.60483 0.138542)
(1.81161 0.417732 0.737281)
(1.04022 0.437468 1.65123)
(1.83366 0.431937 0.671664)
(0.060362 1.61557 1.17741)
(1.07913 1.63343 0.409114)
(0.280161 1.40444 1.39608)
(0.967861 1.19463 1.2791)
(1.748 0.950613 0.202066)
(0.600222 1.61339 1.01819)
(0.811432 1.01379 1.52112)
(1.66698 1.01563 0.435501)
(0.601424 1.18714 1.49298)
(1.1237 0.530157 1.56724)
(1.51069 1.19592 0.536272)
(1.30795 0.80944 1.27831)
(1.76601 0.90298 0.256551)
(1.24718 1.53236 0.310513)
(0.87758 0.690249 1.65934)
(0.878453 0.851035 1.58242)
(1.01989 0.0918556 1.71796)
(0.538489 1.57303 1.11157)
(0.339149 1.45143 1.33354)
(0.767292 1.78501 0.474355)
(1.91004 0.406409 0.43194)
(1.18851 1.30168 0.945019)
(0.294078 1.97658 0.0815406)
(1.03633 1.26424 1.15226)
(0.122776 1.78129 0.901071)
(0.445075 1.3604 1.39686)
(1.88937 0.581887 0.302774)
(0.808683 1.82912 0.0190005)
(1.89651 0.6156 0.155874)
(0.105288 1.51193 1.30498)
(1.9082 0.306576 0.514568)
(1.84978 0.748895 0.132113)
(0.383092 1.43804 1.33614)
(1.88175 0.670471 0.097333)
(1.61947 0.513783 1.05515)
(1.52683 0.872599 0.952555)
(1.17356 0.945604 1.31476)
(1.23221 1.56384 0.189946)
(0.077512 1.59951 1.19815)
(1.20613 1.32817 0.883861)
(0.45077 1.91897 0.338145)
(1.1419 1.13389 1.18759)
(0.705767 1.1746 1.45678)
(1.52678 0.0566416 1.29064)
(0.429891 1.70422 0.954366)
(1.17513 1.22469 1.05793)
(1.20792 0.911569 1.30766)
(1.93643 0.0986529 0.490434)
(0.249838 1.58642 1.19199)
(1.0591 1.69611 0.038801)
(0.779418 0.896994 1.6087)
(0.250563 0.794294 1.81833)
(0.501244 1.72743 0.874501)
(0.93075 1.15064 1.34526)
(0.898295 1.32862 1.19492)
(1.34 1.4751 0.168788)
(1.23024 1.28813 0.909527)
(0.284423 1.77984 0.866751)
(1.95763 0.215769 0.348046)
(1.18909 1.45103 0.693242)
(1.16862 1.31418 0.952503)
(1.03265 1.29259 1.12377)
(0.139964 1.69787 1.04768)
(1.58827 0.395592 1.14931)
(0.742256 1.78312 0.519181)
(1.7939 0.631183 0.619294)
(0.962476 0.206373 1.74099)
(1.06106 1.01353 1.35902)
(1.39686 1.25668 0.685223)
(0.213685 1.98239 0.156479)
(1.15812 1.28558 1.00301)
(1.27191 0.816382 1.30987)
(1.39395 0.0709362 1.43244)
(0.22467 1.30072 1.50255)
(0.03391 0.956912 1.7559)
(1.1646 1.3545 0.899459)
(1.24183 1.54557 0.262829)
(0.168105 1.04475 1.69713)
(1.00565 0.631451 1.60933)
(0.0658309 1.39689 1.42981)