/*--------------------------------*- C++ -*----------------------------------*\
| =========                 |                                                 |
| \\      /  F ield         | OpenFOAM: The Open Source CFD Toolbox           |
|  \\    /   O peration     | Version:  1.5                                   |
|   \\  /    A nd           | Web:      http://www.OpenFOAM.org               |
|    \\/     M anipulation  |                                                 |
\*---------------------------------------------------------------------------*/
FoamFile 
{ 
    version     2.0; 
    format      ascii; 
    class       polyBoundaryMesh; 
    note        "Mesh generated and converted using NETGEN-4.9.12"; 
    location    "constant\polyMesh"; 
    object      boundary; 
} 
// * * * * * * * * * * * * * * * * * * * * * * * * * * * * * * * * * * * * * //

1
(
    wallPatch
    {
        type            wall;
        nFaces          25104;
        startFace       443816;
    }
)

// ************************************************************************* //
